%Nproc=3
#HF/GEN   units=AU
GFinput

C

0   1
C    0.   0.   0.
C    0.   0.   2.347985646

      1 0
 S   3 1.00       0.000000000000
      0.7168506010D+02  0.1543289673D+00
      0.1305752318D+02  0.5353281423D+00
      0.3533875353D+01  0.4446345422D+00
 S   3 1.00       0.000000000000
      0.6677585278D+01 -0.5994474923D-01
      0.4054856620D+00  0.5960385399D+00
      0.1556719210D+00  0.4581786290D+00
 P   3 1.00       0.000000000000
      0.2259772099D+01  0.1623948553D+00
      0.5799632400D+00  0.5661708868D+00
      0.1969058880D+00  0.4223071748D+00
 ****
      2 0
 S   3 1.00       0.000000000000
      0.7168506010D+02  0.1543289673D+00
      0.1305752318D+02  0.5353281423D+00
      0.3533875353D+01  0.4446345422D+00
 S   3 1.00       0.000000000000
      0.6677585278D+01 -0.5994474923D-01
      0.4054856620D+00  0.5960385399D+00
      0.1556719210D+00  0.4581786290D+00
 P   3 1.00       0.000000000000
      0.2259772099D+01  0.1623948553D+00
      0.5799632400D+00  0.5661708868D+00
      0.1969058880D+00  0.4223071748D+00
 ****

