%nprocshared=4
%chk=C:\G09W\Scratch\C60.chk
# hf/sto-3g geom=connectivity gfinput

Title Card Required

0 1
 C                  0.00000000   -0.21929824    0.00000000
 C                  1.46388900   -0.21929824    0.00000000
 C                  2.15617800    0.97989976    0.00000000
 C                  1.42419600    2.24765776   -0.00001900
 C                  0.03952800    2.24762576    0.00000500
 C                 -0.69237800    0.97983076    0.00002100
 C                 -0.45238000   -1.32568324   -0.84514300
 C                  0.73190600   -2.00943524   -1.36751300
 C                  1.91626600   -1.32564324   -0.84518700
 C                  3.03643700   -1.17294224   -1.64467700
 C                  3.34043300    1.14132276   -0.84525000
 C                  2.15608200    3.19258176   -0.84526500
 C                  1.46367900    4.08635976   -1.64470200
 C                 -0.00021400    4.08633676   -1.64464800
 C                 -0.69248000    3.19253276   -0.84515400
 C                 -1.87680200    2.50872576   -1.36745400
 C                 -1.87674000    1.14120876   -0.84510200
 C                 -2.30464600    0.09470876   -1.64450700
 C                 -1.57264900   -1.17305024   -1.64452900
 C                  0.73185400   -2.50354024   -2.66101900
 C                 -0.45247200   -2.34217224   -3.50614400
 C                 -1.57268600   -1.69541424   -3.01203600
 C                 -2.30470000   -0.75050624   -3.85720300
 C                 -2.75707000    0.35584576   -3.01201000
 C                 -2.75712200    1.64936376   -3.50610800
 C                 -2.30475600    2.75573876   -2.66095700
 C                 -1.57287100    3.70070176   -3.50619100
 C                 -0.45264400    4.34750476   -3.01217300
 C                  3.34037200    2.50885676   -1.36763700
 C                  1.91593600    3.33104176   -5.67325800
 C                  3.03620600    3.17841976   -4.87388600
 C                  3.76817900    1.91066876   -4.87388000
 C                  3.34027700    0.86417376   -5.67330600
 C                  2.15594700    1.02555276   -6.51843700
 C                 -0.00033600    2.22465776   -6.51837200
 C                 -0.45270500    3.33101676   -5.67318700
 C                  0.73160400    4.01481776   -5.15088600
 C                  0.73164100    4.50891576   -3.85737800
 C                  1.91600000    4.34752076   -3.01221300
 C                  3.03622600    3.70078376   -3.50632700
 C                  4.22057400    1.64951876   -3.50637300
 C                  4.22063100    0.35602876   -3.01226300
 C                  3.76823800   -0.75037224   -3.85740200
 C                  3.34031000   -0.50335124   -5.15092200
 C                  2.15602600   -1.18714724   -5.67323000
 C                  1.42402400   -0.24224724   -6.51838300
 C                  0.03935400   -0.24226324   -6.51832700
 C                 -0.69263300    1.02548676   -6.51833200
 C                 -1.57290600    3.17832376   -4.87370400
 C                 -2.30480500    1.91053076   -4.87365800
 C                 -1.87692000    0.86405476   -5.67310300
 C                 -1.87686500   -0.50347324   -5.15073900
 C                 -0.69253800   -1.18721624   -5.67312600
 C                 -0.00015000   -2.08099524   -4.87371500
 C                  1.46374300   -2.08096924   -4.87374700
 C                  1.91615800   -2.34210124   -3.50626500
 C                  3.03637900   -1.69530224   -3.01222400
 C                  3.76820100    2.75590076   -2.66118400
 C                  3.76831600    0.09485876   -1.64469900
 C                  1.46357200    2.22469576   -6.51840400

 1 2 1.0 6 2.0 7 1.0
 2 3 2.0 9 1.0
 3 4 1.0 11 1.0
 4 5 2.0 12 1.0
 5 6 1.0 15 1.0
 6 17 1.0
 7 8 1.0 19 2.0
 8 9 1.0 20 2.0
 9 10 2.0
 10 57 1.0 59 1.0
 11 29 1.0 59 2.0
 12 13 2.0 29 1.0
 13 14 1.0 39 1.0
 14 15 2.0 28 1.0
 15 16 1.0
 16 17 1.0 26 2.0
 17 18 2.0
 18 19 1.0 24 1.0
 19 22 1.0
 20 21 1.0 56 1.0
 21 22 2.0 54 1.0
 22 23 1.0
 23 24 1.0 52 2.0
 24 25 2.0
 25 26 1.0 50 1.0
 26 27 1.0
 27 28 2.0 49 1.0
 28 38 1.0
 29 58 2.0
 30 31 2.0 37 1.0 60 1.0
 31 32 1.0 40 1.0
 32 33 2.0 41 1.0
 33 34 1.0 44 1.0
 34 46 1.0 60 2.0
 35 36 1.0 48 2.0 60 1.0
 36 37 1.0 49 2.0
 37 38 2.0
 38 39 1.0
 39 40 2.0
 40 58 1.0
 41 42 2.0 58 1.0
 42 43 1.0 59 1.0
 43 44 2.0 57 1.0
 44 45 1.0
 45 46 1.0 55 2.0
 46 47 2.0
 47 48 1.0 53 1.0
 48 51 1.0
 49 50 1.0
 50 51 2.0
 51 52 1.0
 52 53 1.0
 53 54 2.0
 54 55 1.0
 55 56 1.0
 56 57 2.0
 57
 58
 59
 60

