%nprocshared=4
%chk=C:\G09W\Scratch\C60.chk
# hf/gen

Title Card Required

0 1
 C                  0.00000000   -0.21929824    0.00000000
 C                  1.46388900   -0.21929824    0.00000000
 C                  2.15617800    0.97989976    0.00000000
 C                  1.42419600    2.24765776   -0.00001900
 C                  0.03952800    2.24762576    0.00000500
 C                 -0.69237800    0.97983076    0.00002100
 C                 -0.45238000   -1.32568324   -0.84514300
 C                  0.73190600   -2.00943524   -1.36751300
 C                  1.91626600   -1.32564324   -0.84518700
 C                  3.03643700   -1.17294224   -1.64467700
 C                  3.34043300    1.14132276   -0.84525000
 C                  2.15608200    3.19258176   -0.84526500
 C                  1.46367900    4.08635976   -1.64470200
 C                 -0.00021400    4.08633676   -1.64464800
 C                 -0.69248000    3.19253276   -0.84515400
 C                 -1.87680200    2.50872576   -1.36745400
 C                 -1.87674000    1.14120876   -0.84510200
 C                 -2.30464600    0.09470876   -1.64450700
 C                 -1.57264900   -1.17305024   -1.64452900
 C                  0.73185400   -2.50354024   -2.66101900
 C                 -0.45247200   -2.34217224   -3.50614400
 C                 -1.57268600   -1.69541424   -3.01203600
 C                 -2.30470000   -0.75050624   -3.85720300
 C                 -2.75707000    0.35584576   -3.01201000
 C                 -2.75712200    1.64936376   -3.50610800
 C                 -2.30475600    2.75573876   -2.66095700
 C                 -1.57287100    3.70070176   -3.50619100
 C                 -0.45264400    4.34750476   -3.01217300
 C                  3.34037200    2.50885676   -1.36763700
 C                  1.91593600    3.33104176   -5.67325800
 C                  3.03620600    3.17841976   -4.87388600
 C                  3.76817900    1.91066876   -4.87388000
 C                  3.34027700    0.86417376   -5.67330600
 C                  2.15594700    1.02555276   -6.51843700
 C                 -0.00033600    2.22465776   -6.51837200
 C                 -0.45270500    3.33101676   -5.67318700
 C                  0.73160400    4.01481776   -5.15088600
 C                  0.73164100    4.50891576   -3.85737800
 C                  1.91600000    4.34752076   -3.01221300
 C                  3.03622600    3.70078376   -3.50632700
 C                  4.22057400    1.64951876   -3.50637300
 C                  4.22063100    0.35602876   -3.01226300
 C                  3.76823800   -0.75037224   -3.85740200
 C                  3.34031000   -0.50335124   -5.15092200
 C                  2.15602600   -1.18714724   -5.67323000
 C                  1.42402400   -0.24224724   -6.51838300
 C                  0.03935400   -0.24226324   -6.51832700
 C                 -0.69263300    1.02548676   -6.51833200
 C                 -1.57290600    3.17832376   -4.87370400
 C                 -2.30480500    1.91053076   -4.87365800
 C                 -1.87692000    0.86405476   -5.67310300
 C                 -1.87686500   -0.50347324   -5.15073900
 C                 -0.69253800   -1.18721624   -5.67312600
 C                 -0.00015000   -2.08099524   -4.87371500
 C                  1.46374300   -2.08096924   -4.87374700
 C                  1.91615800   -2.34210124   -3.50626500
 C                  3.03637900   -1.69530224   -3.01222400
 C                  3.76820100    2.75590076   -2.66118400
 C                  3.76831600    0.09485876   -1.64469900
 C                  1.46357200    2.22469576   -6.51840400

      C 0
 S   3 1.00       0.000000000000
      0.7161683735D+02  0.1543289673D+00
      0.1304509632D+02  0.5353281423D+00
      0.3530512160D+01  0.4446345422D+00
 SP   3 1.00       0.000000000000
      0.2941249355D+01 -0.9996722919D-01  0.1559162750D+00
      0.6834830964D+00  0.3995128261D+00  0.6076837186D+00
      0.2222899159D+00  0.7001154689D+00  0.3919573931D+00
 ****
