%nproc=4
# opt hf/gen

hola esto es una prueba  -1 2

0  3
 F                  0.00000000    0.00000000    0.00000000
 N                 -0.01385641    0.00000000    1.45200000
 N                  1.05308689    0.00000000    2.06800000
 F                  1.04883500    0.21956025    3.50336449

      1 0
 S   3 1.00       0.000000000000
      0.1666791340D+03  0.1543289673D+00
      0.3036081233D+02  0.5353281423D+00
      0.8216820672D+01  0.4446345422D+00
 S   3 1.00       0.000000000000
      0.6464803249D+01 -0.9996722919D-01 
      0.1502281245D+01  0.3995128261D+00
      0.4885884864D+00  0.7001154689D+00 
 P   3 1.00       0.000000000000
      1.11  0.1111
      2.22  0.2222
      0.33  0.3333
 S   1 1.00       0.000000000000
      44.4444   0.444444
 D   1 1.00       0.000000000000
      55.5555   0.5555
 ****
      2 0
 S   3 1.00       0.000000000000
      0.9910616896D+02  0.1543289673D+00
      0.1805231239D+02  0.5353281423D+00
      0.4885660238D+01  0.4446345422D+00
 SP   3 1.00       0.000000000000
      0.3780455879D+01 -0.9996722919D-01  0.1559162750D+00
      0.8784966449D+00  0.3995128261D+00  0.6076837186D+00
      0.2857143744D+00  0.7001154689D+00  0.3919573931D+00
 ****
      3 0
 S   3 1.00       0.000000000000
      0.9910616896D+02  0.1543289673D+00
      0.1805231239D+02  0.5353281423D+00
      0.4885660238D+01  0.4446345422D+00
 SP   3 1.00       0.000000000000
      0.3780455879D+01 -0.9996722919D-01  0.1559162750D+00
      0.8784966449D+00  0.3995128261D+00  0.6076837186D+00
      0.2857143744D+00  0.7001154689D+00  0.3919573931D+00
 ****
      4 0
 S   3 1.00       0.000000000000
      0.1666791340D+03  0.1543289673D+00
      0.3036081233D+02  0.5353281423D+00
      0.8216820672D+01  0.4446345422D+00
 SP   3 1.00       0.000000000000
      0.6464803249D+01 -0.9996722919D-01  0.1559162750D+00
      0.1502281245D+01  0.3995128261D+00  0.6076837186D+00
      0.4885884864D+00  0.7001154689D+00  0.3919573931D+00
 ****

